scripts/data/matpower/ESS/ess_base_ponta.m
%% MATPOWER Case Format : Version 2
function mpc = ess_base_ponta
mpc.version = '2';

%%-----  Power Flow Data  -----%%
%% system MVA base
mpc.baseMVA = 100.0;
%% bus data
%    bus_i    type    Pd    Qd    Gs    Bs    area    Vm    Va    baseKV    zone    Vmax    Vmin
mpc.bus = [
	1	2	0.0	0.0	0.0	0.0	5	1.009	43.9	13.8	1	1.05	0.95				
	4	2	0.0	0.0	0.0	0.0	5	0.98	43.9	13.8	1	1.05	0.95				
	5	2	0.0	0.0	0.0	0.0	5	0.98	44.3	13.8	1	1.05	0.95				
	6	2	0.0	0.0	0.0	0.0	5	0.983	46.6	13.8	1	1.05	0.95				
	7	2	0.0	0.0	0.0	0.0	5	0.99	42.400000000000006	13.8	1	1.05	0.95				
	8	2	0.0	0.0	0.0	0.0	5	0.992	43.5	13.8	1	1.05	0.95				
	9	2	0.0	0.0	0.0	0.0	5	0.992	43.5	13.8	1	1.05	0.95				
	10	2	0.0	0.0	0.0	0.0	5	1.001	43.2	13.8	1	1.05	0.95				
	11	2	0.0	0.0	0.0	0.0	5	0.996	43.3	13.8	1	1.05	0.95				
	14	2	0.0	0.0	0.0	0.0	5	1.024	41.7	13.8	1	1.05	0.95				
	21	2	0.0	0.0	0.0	0.0	6	0.992	44.8	13.8	1	1.05	0.95				
	22	4	0.0	0.0	0.0	0.0	6	1.05	19.3	13.8	1	1.05	0.95				
	28	2	0.0	0.0	0.0	0.0	5	0.991	42.5	13.8	1	1.05	0.95				
	29	2	0.0	0.0	0.0	0.0	5	0.989	42.3	13.8	1	1.05	0.95				
	33	2	0.0	0.0	0.0	0.0	5	1.042	40.8	13.8	1	1.05	0.95				
	34	2	0.0	0.0	0.0	0.0	5	1.042	40.8	13.8	1	1.05	0.95				
	35	1	0.0	0.0	0.0	0.0	5	1.063	36.9	999.0	1	1.1	0.9				
	44	2	0.0	0.0	0.0	0.0	4	0.999	45.20000000000001	13.8	1	1.05	0.95				
	46	2	0.0	0.0	0.0	0.0	4	0.998	46.3	13.8	1	1.05	0.95				
	47	4	0.0	0.0	0.0	0.0	4	1.0	21.3	13.8	1	1.05	0.95				
	48	2	0.0	0.0	0.0	0.0	1	1.014	13.1	13.8	1	1.05	0.95				
	50	2	0.0	0.0	0.0	0.0	7	1.007	57.79999999999999	13.8	1	1.05	0.95				
	52	2	0.0	0.0	0.0	0.0	7	1.007	58.9	13.8	1	1.05	0.95				
	54	2	0.0	0.0	0.0	0.0	7	1.007	58.2	13.8	1	1.05	0.95				
	63	2	0.0	0.0	0.0	0.0	1	1.001	6.07	13.8	1	1.05	0.95				
	68	4	0.0	0.0	0.0	0.0	4	1.01	0.875	13.8	1	1.05	0.95				
	69	4	0.0	0.0	0.0	0.0	4	1.0	21.3	13.8	1	1.05	0.95				
	70	2	0.0	0.0	0.0	0.0	7	1.0	60.4	13.8	1	1.05	0.95				
	71	2	0.0	0.0	0.0	0.0	7	0.996	60.900000000000006	13.8	1	1.05	0.95				
	72	4	0.0	0.0	0.0	0.0	7	1.0	-4.0	13.8	1	1.05	0.95				
	73	4	0.0	0.0	0.0	0.0	7	1.0	-4.0	13.8	1	1.05	0.95				
	74	2	0.0	0.0	0.0	0.0	102	0.994	32.5	13.8	1	1.05	0.95				
	77	4	0.0	0.0	0.0	0.0	7	1.015	28.6	13.8	1	1.05	0.95				
	80	2	0.0	0.0	0.0	0.0	7	1.022	53.2	13.8	1	1.05	0.95				
	86	4	0.0	0.0	0.0	0.0	4	1.0	11.9	13.8	1	1.05	0.95				
	87	4	0.0	0.0	0.0	0.0	4	1.025	11.8	13.8	1	1.05	0.95				
	88	4	0.0	0.0	0.0	0.0	4	1.0	11.4	13.8	1	1.05	0.95				
	89	2	0.0	0.0	0.0	0.0	5	1.033	40.9	13.8	1	1.05	0.95				
	95	2	0.0	0.0	0.0	0.0	1	1.024	2.26	13.8	1	1.05	0.95				
	96	2	0.0	0.0	0.0	0.0	2	1.003	26.8	13.8	1	1.05	0.95				
	97	2	0.0	0.0	0.0	0.0	2	1.003	26.8	13.8	1	1.05	0.95				
	98	2	0.0	0.0	0.0	0.0	2	1.003	26.8	13.8	1	1.05	0.95				
	99	2	0.0	0.0	0.0	0.0	2	1.003	26.8	13.8	1	1.05	0.95				
	100	2	0.0	0.0	0.0	0.0	2	1.003	26.8	13.8	1	1.05	0.95				
	101	2	0.0	0.0	0.0	0.0	2	1.003	26.8	13.8	1	1.05	0.95				
	102	2	0.0	0.0	0.0	0.0	102	0.998	35.2	13.8	1	1.05	0.95				
	103	1	126.4	26.890000000000004	0.0	0.0	108	1.016	43.4	138.0	1	1.05	0.95				
	104	2	0.0	0.0	0.0	0.0	2	1.01	29.4	13.8	1	1.05	0.95				
	108	2	0.0	0.0	0.0	0.0	1	1.014	10.3	13.8	1	1.05	0.95				
	109	2	0.0	0.0	0.0	0.0	1	1.014	10.3	6.9	1	1.05	0.95				
	110	1	0.0	0.0	0.0	0.0	1	1.019	11.0	230.0	1	1.05	0.95				
	112	2	0.0	0.0	0.0	0.0	1	1.019	11.0	13.8	1	1.05	0.95				
	115	1	8.096	2.029	0.0	0.0	109	1.014	36.0	138.0	1	1.05	0.95				
	120	1	108.7	7.510999999999999	0.0	0.0	105	1.003	34.7	138.0	1	1.05	0.95				
	121	1	0.0	0.0	0.0	-10.0	102	0.99	35.5	13.8	1	1.05	0.95				
	125	1	0.0	0.0	0.0	3.1	102	1.0	35.2	13.8	1	1.05	0.95				
	127	1	25.489999999999995	6.16	0.0	0.0	101	0.999	38.8	138.0	1	1.05	0.95				
	128	2	0.0	0.0	0.0	0.0	1	0.999	8.72	13.8	1	1.05	0.95				
	129	2	0.0	0.0	0.0	0.0	1	0.999	8.72	13.8	1	1.05	0.95				
	130	2	0.0	0.0	0.0	0.0	2	0.995	27.7	13.8	1	1.05	0.95				
	131	1	134.8	14.069999999999999	0.0	0.0	109	1.0	35.0	138.0	1	1.05	0.95				
	137	2	0.0	0.0	0.0	0.0	2	0.995	27.7	13.8	1	1.05	0.95				
	138	1	0.0	0.0	0.0	0.0	2	0.995	27.7	230.0	1	1.05	0.95				
	139	2	0.0	0.0	0.0	0.0	1	0.996	23.1	13.8	1	1.05	0.95				
	140	2	1.2	0.0	0.0	0.0	108	1.0	8.05	13.8	1	1.05	0.95				
	141	1	0.0	0.0	0.0	0.0	2	1.003	26.8	230.0	1	1.05	0.95				
	142	1	0.0	0.0	0.0	0.0	102	0.998	35.2	69.0	1	1.05	0.95				
	144	1	0.0	0.0	0.0	0.0	104	0.997	35.4	138.0	1	1.05	0.95				
	145	1	0.0	0.0	0.0	-10.0	103	1.004	40.0	138.0	1	1.05	0.95				
	146	1	63.81	20.99	0.0	10.0	104	0.968	33.5	138.0	1	1.05	0.95				
	147	1	0.0	0.0	0.0	0.0	2	1.003	26.8	999.0	1	1.1	0.9				
	148	1	0.0	0.0	0.0	0.0	2	1.003	26.8	999.0	1	1.1	0.9				
	149	1	0.0	0.0	0.0	0.0	2	1.003	26.8	999.0	1	1.1	0.9				
	150	1	0.0	0.0	0.0	0.0	108	1.0	8.27	69.0	1	1.05	0.95				
	151	1	21.5	-3.1300000000000003	0.0	0.0	103	1.001	46.4	138.0	1	1.05	0.95				
	152	1	0.0	0.0	0.0	0.0	103	0.994	45.7	138.0	1	1.05	0.95				
	160	2	0.0	0.0	0.0	0.0	2	1.002	26.7	13.8	1	1.05	0.95				
	161	2	0.0	0.0	0.0	0.0	2	1.002	26.7	13.8	1	1.05	0.95				
	162	1	90.43	29.719999999999995	0.0	10.0	108	0.981	-13.0	138.0	1	1.05	0.95				
	164	4	0.0	0.0	0.0	0.0	8	1.04	63.2	13.8	1	1.05	0.95				
	166	1	0.0	0.0	0.0	0.0	8	1.026	41.1	500.0	1	1.1	1.0				
	167	2	0.0	0.0	0.0	0.0	8	0.981	43.1	13.8	1	1.05	0.95				
	169	1	154.4	17.95	0.0	0.0	108	1.017	-9.3	138.0	1	1.05	0.95				
	170	2	0.0	0.0	0.0	0.0	1	0.998	8.52	13.8	1	1.05	0.95				
	172	2	0.0	0.0	0.0	0.0	1	1.009	-4.9	13.8	1	1.05	0.95				
	174	1	0.0	0.0	0.0	0.0	1	0.99	12.1	999.0	1	1.1	0.9				
	176	1	0.0	0.0	0.0	0.0	108	1.018	-0.77	115.0	1	1.05	0.95				
	180	2	12.5	0.0	0.0	0.0	108	1.002	10.0	13.8	1	1.05	0.95				
	181	1	0.0	0.0	0.0	0.0	108	1.002	8.63	69.0	1	1.05	0.95				
	182	1	0.0	0.0	0.0	0.0	108	1.0	8.35	69.0	1	1.05	0.95				
	183	1	106.89999999999999	39.43	0.0	0.0	108	0.999	32.1	138.0	1	1.05	0.95				
	186	1	45.94	-11.5	0.0	0.0	108	1.002	22.0	138.0	1	1.05	0.95				
	188	1	45.08	14.82	0.0	0.0	108	1.001	3.26	138.0	1	1.05	0.95				
	190	1	0.0	0.0	0.0	0.0	7	1.01	52.8	230.0	1	1.05	0.95				
	191	1	0.0	0.0	0.0	0.0	7	1.029	50.2	500.0	1	1.1	1.0				
	192	1	0.0	0.0	0.0	0.0	110	1.016	33.3	138.0	1	1.05	0.95				
	195	2	0.0	0.0	0.0	0.0	7	1.0	56.0	13.8	1	1.05	0.95				
	196	2	0.0	0.0	0.0	0.0	2	1.0	35.1	13.8	1	1.05	0.95				
	197	1	0.0	0.0	0.0	0.0	7	1.053	42.400000000000006	500.0	1	1.1	1.0				
	198	1	0.0	0.0	0.0	0.0	7	1.0	34.5	999.0	1	1.1	0.9				
	199	2	0.0	0.0	0.0	0.0	7	1.007	44.2	13.8	1	1.05	0.95				
	200	1	0.0	0.0	0.0	0.0	5	1.019	38.3	230.0	1	1.05	0.95				
	202	1	0.0	0.0	0.0	0.0	6	1.005	40.1	230.0	1	1.05	0.95				
	203	1	0.0	0.0	0.0	0.0	6	0.997	45.6	230.0	1	1.05	0.95				
	204	1	3.8610000000000007	1.645	0.0	0.0	109	0.991	31.6	230.0	1	1.05	0.95				
	205	1	0.0	0.0	0.0	0.0	6	1.017	27.8	230.0	1	1.05	0.95				
	206	1	0.0	0.0	0.0	0.0	6	1.003	41.1	230.0	1	1.05	0.95				
	207	1	2.732	0.8567	0.0	0.0	108	0.998	42.3	230.0	1	1.05	0.95				
	208	1	0.0	0.0	0.0	0.0	5	1.015	38.0	230.0	1	1.05	0.95				
	209	1	0.0	0.0	0.0	0.0	108	1.007	0.863	230.0	1	1.05	0.95				
	210	1	0.0	0.0	0.0	0.0	4	1.01	38.0	230.0	1	1.05	0.95				
	211	4	0.0	0.0	0.0	0.0	4	1.038	21.8	230.0	1	1.05	0.95				
	212	1	0.0	0.0	0.0	0.0	5	1.026	37.2	230.0	1	1.05	0.95				
	213	1	0.0	0.0	0.0	-10.0	1	1.015	-0.23	230.0	1	1.05	0.95				
	214	1	9.8	8.1	0.0	0.0	1	1.02	10.0	230.0	1	1.05	0.95				
	215	1	0.0	0.0	0.0	0.0	7	1.011	36.800000000000004	230.0	1	1.05	0.95				
	216	1	0.0	0.0	0.0	-15.0	3	1.008	32.8	230.0	1	1.05	0.95				
	217	1	0.0	0.0	0.0	0.0	3	1.005	35.4	230.0	1	1.05	0.95				
	218	1	0.0	0.0	0.0	0.0	3	0.996	34.9	230.0	1	1.05	0.95				
	219	1	0.0	0.0	0.0	0.0	3	0.999	35.9	230.0	1	1.05	0.95				
	220	1	0.0	0.0	0.0	0.0	3	1.027	36.6	230.0	1	1.05	0.95				
	221	1	0.0	0.0	0.0	0.0	3	1.022	37.5	230.0	1	1.05	0.95				
	222	1	0.0	0.0	0.0	-20.0	3	1.015	38.8	230.0	1	1.05	0.95				
	223	1	0.0	0.0	0.0	-20.0	3	1.004	44.1	230.0	1	1.05	0.95				
	224	1	0.0	0.0	0.0	-20.0	3	0.997	44.9	230.0	1	1.05	0.95				
	225	1	0.0	0.0	0.0	0.0	3	1.0	36.20000000000001	230.0	1	1.05	0.95				
	226	1	0.0	0.0	0.0	0.0	3	0.986	37.3	230.0	1	1.05	0.95				
	227	1	0.0	0.0	0.0	0.0	4	1.012	37.4	230.0	1	1.05	0.95				
	228	1	0.0	0.0	0.0	0.0	4	1.004	35.1	230.0	1	1.05	0.95				
	229	1	0.0	0.0	0.0	0.0	4	1.002	40.1	230.0	1	1.05	0.95				
	230	1	0.0	0.0	0.0	0.0	7	0.989	33.1	230.0	1	1.05	0.95				
	231	1	0.0	0.0	0.0	0.0	7	0.992	37.0	230.0	1	1.05	0.95				
	232	1	0.0	0.0	0.0	0.0	7	1.017	37.4	230.0	1	1.05	0.95				
	233	1	0.0	0.0	0.0	0.0	3	0.962	31.6	230.0	1	1.05	0.95				
	234	1	0.0	0.0	0.0	0.0	3	0.992	35.1	230.0	1	1.05	0.95				
	235	1	0.0	0.0	0.0	0.0	7	1.01	36.0	230.0	1	1.05	0.95				
	236	1	0.0	0.0	0.0	-25.0	7	0.994	32.6	230.0	1	1.05	0.95				
	237	1	0.0	0.0	0.0	0.0	4	1.003	39.2	230.0	1	1.05	0.95				
	238	1	0.0	0.0	0.0	0.0	7	1.023	39.2	230.0	1	1.05	0.95				
	239	1	0.0	0.0	0.0	0.0	7	1.038	40.0	230.0	1	1.05	0.95				
	240	1	0.0	0.0	0.0	0.0	2	1.003	32.3	230.0	1	1.05	0.95				
	241	1	0.0	0.0	0.0	50.5	2	1.009	27.7	230.0	1	1.05	0.95				
	242	1	0.0	0.0	0.0	0.0	2	1.002	26.0	230.0	1	1.05	0.95				
	243	1	0.0	0.0	0.0	0.0	2	1.0	26.7	230.0	1	1.05	0.95				
	244	1	0.0	0.0	0.0	0.0	2	1.0	35.1	230.0	1	1.05	0.95				
	245	1	0.0	0.0	0.0	0.0	2	0.995	27.7	230.0	1	1.05	0.95				
	246	1	0.0	0.0	0.0	-19.9	2	1.0	41.7	230.0	1	1.05	0.95				
	247	1	0.0	0.0	0.0	-10.0	2	0.997	28.0	230.0	1	1.05	0.95				
	248	1	0.0	0.0	0.0	0.0	2	0.995	27.7	230.0	1	1.05	0.95				
	249	1	0.0	0.0	0.0	0.0	2	0.998	26.3	230.0	1	1.05	0.95				
	250	1	6.800000000000001	2.1	0.0	0.0	2	0.997	26.0	230.0	1	1.05	0.95				
	251	1	0.0	0.0	0.0	0.0	2	0.989	46.1	230.0	1	1.05	0.95				
	252	1	0.0	0.0	0.0	0.0	2	0.995	27.400000000000002	230.0	1	1.05	0.95				
	253	1	0.0	0.0	0.0	0.0	2	1.002	26.7	230.0	1	1.05	0.95				
	254	1	0.0	0.0	0.0	0.0	2	1.003	27.0	230.0	1	1.05	0.95				
	255	1	0.0	0.0	0.0	0.0	2	0.99	31.3	230.0	1	1.05	0.95				
	256	1	0.0	0.0	0.0	0.0	2	1.0	30.299999999999997	230.0	1	1.05	0.95				
	258	1	0.0	0.0	0.0	15.0	2	1.03	21.3	230.0	1	1.05	0.95				
	259	1	0.0	0.0	0.0	0.0	2	0.994	25.700000000000003	230.0	1	1.05	0.95				
	260	1	0.0	0.0	0.0	0.0	2	1.01	29.4	230.0	1	1.05	0.95				
	261	1	0.0	0.0	0.0	0.0	2	1.007	28.899999999999995	230.0	1	1.05	0.95				
	262	1	0.0	0.0	0.0	0.0	1	0.986	-11.0	230.0	1	1.05	0.95				
	263	1	0.0	0.0	0.0	0.0	1	1.011	-4.5	230.0	1	1.05	0.95				
	264	1	0.0	0.0	0.0	0.0	1	1.028	9.47	230.0	1	1.05	0.95				
	265	1	0.0	0.0	0.0	50.0	1	1.017	17.8	230.0	1	1.05	0.95				
	266	1	0.0	0.0	0.0	0.0	1	1.013	8.830000000000002	230.0	1	1.05	0.95				
	267	1	114.99999999999999	17.8	0.0	0.0	117	1.009	-4.9	230.0	1	1.05	0.95				
	268	1	0.0	0.0	0.0	0.0	1	0.985	7.530000000000001	230.0	1	1.05	0.95				
	269	1	0.0	0.0	0.0	0.0	1	0.995	-7.1	230.0	1	1.05	0.95				
	270	1	0.0	0.0	0.0	0.0	1	0.984	24.7	230.0	1	1.05	0.95				
	271	1	0.0	0.0	0.0	0.0	1	1.008	24.9	230.0	1	1.05	0.95				
	272	1	0.0	0.0	0.0	0.0	1	1.007	11.1	230.0	1	1.05	0.95				
	273	1	0.0	0.0	0.0	0.0	1	1.021	25.4	230.0	1	1.05	0.95				
	274	1	0.0	0.0	0.0	0.0	1	0.99	12.1	230.0	1	1.05	0.95				
	275	1	0.0	0.0	0.0	0.0	1	1.023	10.5	230.0	1	1.05	0.95				
	276	1	0.0	0.0	0.0	50.5	1	1.025	-0.14	230.0	1	1.05	0.95				
	277	1	0.0	0.0	0.0	0.0	1	0.986	7.41	230.0	1	1.05	0.95				
	278	1	0.0	0.0	0.0	0.0	1	0.986	7.710000000000001	230.0	1	1.05	0.95				
	279	1	0.0	0.0	0.0	0.0	1	0.996	9.050000000000002	230.0	1	1.05	0.95				
	280	1	0.0	0.0	0.0	0.0	1	0.999	8.72	230.0	1	1.05	0.95				
	281	1	0.0	0.0	0.0	0.0	1	0.986	7.72	230.0	1	1.05	0.95				
	283	1	0.0	0.0	0.0	0.0	6	1.0	33.5	230.0	1	1.05	0.95				
	284	1	0.0	0.0	0.0	0.0	1	1.018	10.8	230.0	1	1.05	0.95				
	285	1	0.0	0.0	0.0	-10.0	6	0.992	16.7	230.0	1	1.05	0.95				
	286	1	0.0	0.0	0.0	-10.0	6	1.008	21.5	230.0	1	1.05	0.95				
	287	1	0.0	0.0	0.0	0.0	4	1.015	32.6	230.0	1	1.05	0.95				
	288	1	0.0	0.0	0.0	0.0	6	1.011	5.14	230.0	1	1.05	0.95				
	289	1	0.0	0.0	0.0	0.0	1	1.037	11.0	230.0	1	1.05	0.95				
	290	1	0.0	0.0	0.0	0.0	2	1.001	42.3	230.0	1	1.05	0.95				
	291	1	0.0	0.0	0.0	55.50000000000001	7	1.002	37.6	230.0	1	1.05	0.95				
	292	1	0.0	0.0	0.0	55.00000000000001	7	1.015	34.8	230.0	1	1.05	0.95				
	293	1	0.0	0.0	0.0	0.0	7	0.999	37.1	230.0	1	1.05	0.95				
	294	1	0.0	0.0	0.0	0.0	1	1.006	12.000000000000002	230.0	1	1.05	0.95				
	295	1	0.0	0.0	0.0	15.0	4	0.983	38.6	230.0	1	1.05	0.95				
	297	1	0.0	0.0	0.0	0.0	7	1.023	50.5	230.0	1	1.05	0.95				
	298	1	0.0	0.0	0.0	222.00000000000003	7	1.007	38.2	230.0	1	1.05	0.95				
	299	1	0.0	0.0	0.0	0.0	7	0.997	44.2	230.0	1	1.05	0.95				
	300	1	0.0	0.0	0.0	0.0	5	1.014	38.0	230.0	1	1.05	0.95				
	301	1	0.0	0.0	0.0	0.0	5	1.021	38.7	230.0	1	1.05	0.95				
	302	1	0.0	0.0	0.0	0.0	5	1.016	38.4	230.0	1	1.05	0.95				
...
];

%% generator data
%    bus    Pg    Qg    Qmax    Qmin    Vg    mBase    status    Pmax    Pmin    Pc1    Pc2    Qc1min    Qc1max    Qc2min    Qc2max    ramp_agc    ramp_10    ramp_30    ramp_q    apf
mpc.gen = [
	8975	457.8	-85.3	180.0	-180.0	0.985	100.0	1	99999.0	0.0															
	59509	0.0	0.0	0.0	0.0	1.0	100.0	1	99999.0	0.0															
	27360	0.0	0.0	0.0	0.0	1.0	100.0	1	99999.0	0.0															
	1429	168.0	13.77	56.00000000000001	-56.00000000000001	1.01	100.0	1	99999.0	0.0															
	112	0.0	0.0	0.0	0.0	1.019	100.0	1	99999.0	0.0															
	57739	15.1	0.0	0.0	0.0	1.0	100.0	1	99999.0	0.0															
	56629	18.0	0.0	0.0	0.0	1.001	100.0	1	99999.0	0.0															
	58001	16.3	0.0	0.0	0.0	1.0	100.0	1	99999.0	0.0															
	6234	10.0	1.045	5.0	-4.0	1.011	100.0	1	99999.0	0.0															
	3583	69.9	-10.3	60.0	-82.0	0.991	100.0	1	99999.0	0.0															
	6311	6.5	0.0	0.0	0.0	1.011	100.0	1	99999.0	0.0															
	58823	10.5	0.0	0.0	0.0	1.0	100.0	1	99999.0	0.0															
	59345	15.4	0.0	0.0	0.0	0.998	100.0	1	99999.0	0.0															
	58814	15.0	0.0	0.0	0.0	1.0	100.0	1	99999.0	0.0															
	56482	19.2	0.0	0.0	0.0	1.002	100.0	1	99999.0	0.0															
	59311	18.1	0.0	0.0	0.0	1.001	100.0	1	99999.0	0.0															
	28710	0.1	0.0	0.0	0.0	0.972	100.0	1	99999.0	0.0															
	1997	1.0	0.1842	0.9000000000000001	-0.6	0.99	100.0	1	99999.0	0.0															
	56068	34.2	0.0	0.0	0.0	1.001	100.0	1	99999.0	0.0															
	6794	11.1	-0.641	5.0	-5.0	1.005	100.0	1	99999.0	0.0															
	58192	18.0	0.0	0.0	0.0	1.002	100.0	1	99999.0	0.0															
	13007	0.0	0.0	0.0	0.0	1.003	100.0	1	99999.0	0.0															
	58224	17.3	0.0	0.0	0.0	1.0	100.0	1	99999.0	0.0															
	46001	0.0	0.0	900.0	-885.0	1.05	100.0	1	99999.0	0.0															
	56757	19.2	0.0	0.0	0.0	1.0	100.0	1	99999.0	0.0															
	841	0.0	12.46	150.0	-105.0	1.019	100.0	1	99999.0	0.0															
	56685	12.6	0.0	0.0	0.0	0.999	100.0	1	99999.0	0.0															
	56668	0.0	0.0	0.0	0.0	1.002	100.0	1	99999.0	0.0															
	58209	17.8	0.0	0.0	0.0	1.0	100.0	1	99999.0	0.0															
	3175	40.0	2.267	16.0	-12.0	1.014	100.0	1	99999.0	0.0															
	6485	8.1	-0.569	4.0	-4.0	1.003	100.0	1	99999.0	0.0															
	55474	0.0	0.0	0.0	0.0	1.0	100.0	1	99999.0	0.0															
	57856	2.9	0.0	0.0	0.0	1.0	100.0	1	99999.0	0.0															
	8738	12.0	0.256	6.0	-5.0	0.999	100.0	1	99999.0	0.0															
	60013	0.0	0.0	0.0	0.0	1.004	100.0	1	99999.0	0.0															
	56628	18.0	0.0	0.0	0.0	1.001	100.0	1	99999.0	0.0															
	1444	48.0	-3.84	14.000000000000002	-15.0	1.005	100.0	1	99999.0	0.0															
	35002	13.4	4.171	8.1	-8.1	0.97	100.0	1	99999.0	0.0															
	56052	11.5	0.0	0.0	0.0	1.0	100.0	1	99999.0	0.0															
	4583	240.0	-16.9	145.3	-117.0	1.022	100.0	1	99999.0	0.0															
	4051	265.0	32.55	240.0	-140.0	1.018	100.0	1	99999.0	0.0															
	58817	12.0	0.0	0.0	0.0	1.0	100.0	1	99999.0	0.0															
	59000	18.4	0.0	0.0	0.0	1.0	100.0	1	99999.0	0.0															
	4408	0.0	0.0	0.0	0.0	1.012	100.0	1	99999.0	0.0															
	60238	0.0	0.0	0.0	0.0	1.002	100.0	1	99999.0	0.0															
	17009	0.0	0.0	0.0	0.0	0.997	100.0	1	99999.0	0.0															
	56479	19.2	0.0	0.0	0.0	1.002	100.0	1	99999.0	0.0															
	56762	14.6	0.0	0.0	0.0	1.0	100.0	1	99999.0	0.0															
	56743	37.8	0.0	0.0	0.0	1.003	100.0	1	99999.0	0.0															
	55782	9.9	0.0	0.0	0.0	0.997	100.0	1	99999.0	0.0															
	26439	13.900000000000002	-2.36	6.0	-6.0	1.006	100.0	1	99999.0	0.0															
	45063	1.1	-0.502	0.0	-1.0	1.0	100.0	1	99999.0	0.0															
	60042	0.0	0.0	0.0	0.0	1.003	100.0	1	99999.0	0.0															
	58836	0.0	0.0	0.0	0.0	1.001	100.0	1	99999.0	0.0															
	3402	0.0	0.0	0.0	0.0	0.958	100.0	1	99999.0	0.0															
	9644	43.2	-1.73	21.0	-18.0	0.986	100.0	1	99999.0	0.0															
	50249	4.8	0.1605	2.0	-2.0	0.99	100.0	1	99999.0	0.0															
	7852	6.0	0.0	0.0	0.0	1.004	100.0	1	99999.0	0.0															
	56665	10.1	0.0	0.0	0.0	1.0	100.0	1	99999.0	0.0															
	40358	15.5	1.412	21.0	-9.0	1.023	100.0	1	99999.0	0.0															
	51035	5.6	0.0	0.0	0.0	0.991	100.0	1	99999.0	0.0															
	29967	0.0	0.0	0.0	0.0	0.997	100.0	1	99999.0	0.0															
	26325	15.0	0.0	0.0	0.0	0.996	100.0	1	99999.0	0.0															
	40607	0.0	0.0	0.0	0.0	0.994	100.0	1	99999.0	0.0															
	60231	0.0	0.0	0.0	0.0	1.002	100.0	1	99999.0	0.0															
	1900	36.8	-2.23	11.0	-12.0	1.001	100.0	1	99999.0	0.0															
	58026	13.3	0.0	0.0	0.0	0.999	100.0	1	99999.0	0.0															
	55757	17.6	0.0	0.0	0.0	1.0	100.0	1	99999.0	0.0															
	55200	16.5	0.0	0.0	0.0	1.0	100.0	1	99999.0	0.0															
	57871	18.0	0.0	0.0	0.0	0.999	100.0	1	99999.0	0.0															
	56688	16.4	0.0	0.0	0.0	1.0	100.0	1	99999.0	0.0															
	26544	0.0	0.0	0.0	0.0	1.011	100.0	1	99999.0	0.0															
	8712	0.0	0.0	0.0	0.0	1.004	100.0	1	99999.0	0.0															
	19586	24.0	-3.8900000000000006	12.0	-10.0	1.005	100.0	1	99999.0	0.0															
	4384	0.0	0.0	0.0	0.0	1.014	100.0	1	99999.0	0.0															
	26942	1.6	-0.49	0.0	-1.0	0.997	100.0	1	99999.0	0.0															
	58866	12.6	0.0	0.0	0.0	1.001	100.0	1	99999.0	0.0															
	11149	0.0	0.0	0.0	0.0	1.009	100.0	1	99999.0	0.0															
	37904	0.0	0.0	0.0	0.0	1.0	100.0	1	99999.0	0.0															
	57753	0.0	0.0	0.0	0.0	1.001	100.0	1	99999.0	0.0															
	25806	5.1	-2.22	2.0	-3.0	0.998	100.0	1	99999.0	0.0															
	9788	0.0	8.131	15.0	0.0	0.996	100.0	1	99999.0	0.0															
	40357	157.8	43.07	122.0	-92.0	0.999	100.0	1	99999.0	0.0															
	12900	0.0	0.0	126.0	-84.0	1.052	100.0	1	99999.0	0.0															
	51079	0.0	0.0	0.0	0.0	1.0	100.0	1	99999.0	0.0															
	26333	5.6	-0.571	2.0	-3.0	0.993	100.0	1	99999.0	0.0															
	59396	7.8	0.0	0.0	0.0	0.997	100.0	1	99999.0	0.0															
	20554	0.0	0.0	0.0	0.0	1.028	100.0	1	99999.0	0.0															
	55764	25.2	0.0	0.0	0.0	1.007	100.0	1	99999.0	0.0															
	59164	0.0	0.0	0.0	0.0	1.002	100.0	1	99999.0	0.0															
	59155	0.0	0.0	0.0	0.0	1.0	100.0	1	99999.0	0.0															
	59050	15.0	0.0	0.0	0.0	1.0	100.0	1	99999.0	0.0															
	26405	97.2	-62.5	59.4	-86.4	0.955	100.0	1	99999.0	0.0															
	51074	4.5	0.0	0.0	0.0	1.009	100.0	1	99999.0	0.0															
	1449	0.0	0.0	0.0	0.0	0.999	100.0	1	99999.0	0.0															
	56763	10.1	0.0	0.0	0.0	0.999	100.0	1	99999.0	0.0															
	40614	0.0	0.0	0.0	0.0	1.004	100.0	1	99999.0	0.0															
	43856	0.9000000000000001	-0.485	0.0	-1.0	0.988	100.0	1	99999.0	0.0															
	55445	0.0	0.0	0.0	0.0	0.999	100.0	1	99999.0	0.0															
	26408	21.6	-4.97	10.0	-9.0	0.983	100.0	1	99999.0	0.0															
	56597	12.4	0.0	0.0	0.0	1.001	100.0	1	99999.0	0.0															
	80023	0.719	0.0	0.348	-0.22999999999999998	1.0	100.0	1	99999.0	0.0															
	56602	19.2	0.0	0.0	0.0	1.0	100.0	1	99999.0	0.0															
	80	721.9	-99.4	405.79999999999995	-405.99999999999994	1.022	100.0	1	99999.0	0.0															
	56649	19.2	0.0	0.0	0.0	1.0	100.0	1	99999.0	0.0															
	10	311.6	-53.7	194.0	-288.0	1.001	100.0	1	99999.0	0.0															
	4385	206.0	9.924	95.0	-94.0	0.995	100.0	1	99999.0	0.0															
	29906	0.0	0.0	0.0	0.0	0.999	100.0	1	99999.0	0.0															
	938	0.0	-4.28	200.0	-140.0	1.0	100.0	1	99999.0	0.0															
	17013	0.0	0.0	0.0	0.0	0.996	100.0	1	99999.0	0.0															
	6484	11.1	-0.8199999999999998	5.0	-5.0	0.997	100.0	1	99999.0	0.0															
	59388	9.6	0.0	0.0	0.0	1.0	100.0	1	99999.0	0.0															
	33332	0.0	0.0	0.0	0.0	1.0	100.0	1	99999.0	0.0															
	59407	0.0	0.0	0.0	0.0	1.0	100.0	1	99999.0	0.0															
	40441	280.3	17.2	381.0	-246.0	1.006	100.0	1	99999.0	0.0															
	57704	18.0	0.0	0.0	0.0	1.0	100.0	1	99999.0	0.0															
	51041	5.2	0.0	0.0	0.0	0.991	100.0	1	99999.0	0.0															
	1441	56.00000000000001	3.757	16.0	-17.0	1.006	100.0	1	99999.0	0.0															
	25717	0.0	0.0	0.0	0.0	0.997	100.0	1	99999.0	0.0															
	58841	0.0	0.0	0.0	0.0	1.001	100.0	1	99999.0	0.0															
	26397	36.0	-3.7800000000000002	18.0	-15.0	1.004	100.0	1	99999.0	0.0															
	1421	264.5	-46.7	108.59999999999998	-210.0	0.985	100.0	1	99999.0	0.0															
	30159	0.0	0.0	0.0	0.0	0.996	100.0	1	99999.0	0.0															
	58812	0.0	0.0	0.0	0.0	1.0	100.0	1	99999.0	0.0															
	29965	34.0	0.0	0.0	0.0	0.949	100.0	1	99999.0	0.0															
	59469	13.0	0.0	0.0	0.0	1.0	100.0	1	99999.0	0.0															
	59086	25.2	0.0	0.0	0.0	1.007	100.0	1	99999.0	0.0															
	9152	6.5	-0.137	3.0	-3.0	1.006	100.0	1	99999.0	0.0															
	56473	0.0	0.0	0.0	0.0	1.001	100.0	1	99999.0	0.0															
	3594	1034.0	185.8	480.0	-480.0	1.002	100.0	1	99999.0	0.0															
	3588	1190.0	-84.0	560.0	-560.0	0.991	100.0	1	99999.0	0.0															
	56740	41.6	0.0	0.0	0.0	1.0	100.0	1	99999.0	0.0															
	55439	16.2	0.0	0.0	0.0	1.001	100.0	1	99999.0	0.0															
	27900	0.0	0.0	0.0	0.0	1.0	100.0	1	99999.0	0.0															
	59402	16.9	0.0	0.0	0.0	1.0	100.0	1	99999.0	0.0															
	58623	16.8	0.0	0.0	0.0	1.001	100.0	1	99999.0	0.0															
	26383	22.4	2.05	11.0	-9.0	0.989	100.0	1	99999.0	0.0															
	58187	26.5	0.0	0.0	0.0	1.002	100.0	1	99999.0	0.0															
	55769	15.1	0.0	0.0	0.0	0.998	100.0	1	99999.0	0.0															
	344	0.0	0.0	0.0	0.0	0.994	100.0	1	99999.0	0.0															
	13411	0.0	0.0	0.0	0.0	0.993	100.0	1	99999.0	0.0															
	9172	0.0	0.0	0.0	0.0	1.006	100.0	1	99999.0	0.0															
	58859	0.0	0.0	0.0	0.0	1.0	100.0	1	99999.0	0.0															
	59413	0.0	0.0	0.0	0.0	1.002	100.0	1	99999.0	0.0															
	56737	20.2	0.0	0.0	0.0	1.003	100.0	1	99999.0	0.0															
	26431	15.5	-4.76	7.000000000000001	-7.000000000000001	1.011	100.0	1	99999.0	0.0															
	3230	0.0	0.0	0.0	0.0	1.002	100.0	1	99999.0	0.0															
	9647	8.4	-0.348	4.0	-4.0	0.994	100.0	1	99999.0	0.0															
	58611	19.7	0.0	0.0	0.0	1.001	100.0	1	99999.0	0.0															
	55217	10.1	0.0	0.0	0.0	1.001	100.0	1	99999.0	0.0															
	23366	13.200000000000001	1.081	6.0	-6.0	0.982	100.0	1	99999.0	0.0															
	58851	0.0	0.0	0.0	0.0	1.0	100.0	1	99999.0	0.0															
	56088	0.0	0.0	0.0	0.0	1.0	100.0	1	99999.0	0.0															
	45120	7.5	0.0078	3.0	-3.0	0.998	100.0	1	99999.0	0.0															
	55462	18.0	0.0	0.0	0.0	1.001	100.0	1	99999.0	0.0															
	58101	0.0	0.0	0.0	0.0	1.005	100.0	1	99999.0	0.0															
	26337	21.3	-2.96	10.0	-9.0	1.002	100.0	1	99999.0	0.0															
	55026	16.6	0.0	0.0	0.0	1.0	100.0	1	99999.0	0.0															
	9579	9.3	0.0365	4.0	-4.0	0.993	100.0	1	99999.0	0.0															
	60145	0.0	0.0	0.0	0.0	1.001	100.0	1	99999.0	0.0															
	56716	17.6	0.0	0.0	0.0	1.0	100.0	1	99999.0	0.0															
	1935	0.3	-0.468	0.0	-1.0	0.992	100.0	1	99999.0	0.0															
	57712	12.0	0.0	0.0	0.0	1.0	100.0	1	99999.0	0.0															
	10411	33.2	-3.73	24.19	-24.2	0.993	100.0	1	99999.0	0.0															
	57460	18.0	0.0	0.0	0.0	1.0	100.0	1	99999.0	0.0															
	8189	13.0	-0.128	6.0	-6.0	0.998	100.0	1	99999.0	0.0															
	8718	520.0	-159.0	280.0	-293.0	0.978	100.0	1	99999.0	0.0															
	59346	16.3	0.0	0.0	0.0	0.999	100.0	1	99999.0	0.0															
	4374	0.0	0.0	0.0	0.0	1.014	100.0	1	99999.0	0.0															
	1659	8.0	0.06219999999999999	4.0	-4.0	1.0	100.0	1	99999.0	0.0															
	40327	0.0	0.0	0.0	0.0	1.0	100.0	1	99999.0	0.0															
	58849	0.0	0.0	0.0	0.0	1.0	100.0	1	99999.0	0.0															
	3382	50.0	-17.3	34.0	-36.0	1.03	100.0	1	99999.0	0.0															
	428	0.0	24.59	150.0	-105.0	0.989	100.0	1	99999.0	0.0															
	10406	65.0	-9.01	51.239999999999995	-51.2	0.998	100.0	1	99999.0	0.0															
	55754	17.6	0.0	0.0	0.0	1.0	100.0	1	99999.0	0.0															
	17015	0.0	0.0	0.0	0.0	0.993	100.0	1	99999.0	0.0															
	58254	17.6	0.0	0.0	0.0	1.001	100.0	1	99999.0	0.0															
	13363	0.0	4.345	110.00000000000001	-55.00000000000001	1.002	100.0	1	99999.0	0.0															
	65053	0.0	0.0	0.0	0.0	1.0	100.0	1	99999.0	0.0															
	59111	0.0	0.0	0.0	0.0	0.998	100.0	1	99999.0	0.0															
	59313	19.1	0.0	0.0	0.0	1.001	100.0	1	99999.0	0.0															
	18531	3.5000000000000004	-0.505	1.0	-2.0	1.002	100.0	1	99999.0	0.0															
	16504	0.0	0.0	0.0	0.0	0.996	100.0	1	99999.0	0.0															
	59167	0.0	0.0	0.0	0.0	1.002	100.0	1	99999.0	0.0															
	59063	18.5	0.0	0.0	0.0	1.0	100.0	1	99999.0	0.0															
	59030	0.0	0.0	0.0	0.0	1.0	100.0	1	99999.0	0.0															
	56754	18.7	0.0	0.0	0.0	1.002	100.0	1	99999.0	0.0															
	27374	0.0	0.0	0.0	0.0	1.011	100.0	1	99999.0	0.0															
	56559	17.3	0.0	0.0	0.0	1.0	100.0	1	99999.0	0.0															
	56458	15.6	0.0	0.0	0.0	1.001	100.0	1	99999.0	0.0															
	8971	0.0	0.0	270.0	-290.0	1.0	100.0	1	99999.0	0.0															
	3621	0.0	37.84	300.0	-180.0	0.985	100.0	1	99999.0	0.0															
	13028	0.0	41.83	150.0	-105.0	1.017	100.0	1	99999.0	0.0															
	59193	16.2	0.0	0.0	0.0	1.0	100.0	1	99999.0	0.0															
	56056	13.900000000000002	0.0	0.0	0.0	1.0	100.0	1	99999.0	0.0															
	1084	210.0	8.24	105.0	-105.0	0.982	100.0	1	99999.0	0.0															
	8631	0.0	0.0	0.0	0.0	1.031	100.0	1	99999.0	0.0															
	59496	0.0	0.0	0.0	0.0	1.0	100.0	1	99999.0	0.0															
	26401	34.2	3.9	20.0	-20.0	1.015	100.0	1	99999.0	0.0															
...
];

%% branch data
%    f_bus    t_bus    r    x    b    rateA    rateB    rateC    ratio    angle    status    angmin    angmax
mpc.branch = [
	6121	6168	0.0001	0.0043	0.0013	185.0	195.0	185.0	0	0	1	-59.99999999999999	59.99999999999999								
	30168	30170	0.008100000000000001	0.027999999999999997	0.00797	128.0	162.0	128.0	0	0	1	-59.99999999999999	59.99999999999999								
	9510	9506	0.00551	0.038206000000000004	0.073	275.0	347.0	239.0	0	0	1	-59.99999999999999	59.99999999999999								
	231	13410	0.0026	0.0167	0.062	300.0	300.0	300.0	0	0	1	-59.99999999999999	59.99999999999999								
	12318	12312	0.00193	0.027759999999999996	2.9067999999999987	2494.0	3464.0	2494.0	0	0	1	-59.99999999999999	59.99999999999999								
	32998	33074	0.0	1.0e-5	0.0	999.0	999.0	999.0	0	0	1	-59.99999999999999	59.99999999999999								
	2077	32406	0.0019	0.0051	0.0013	101.0	144.0	101.0	0	0	1	-59.99999999999999	59.99999999999999								
	7638	7604	0.021	0.034	0.0005	30.0	43.0	30.0	0	0	1	-59.99999999999999	59.99999999999999								
	9355	9358	0.01146	0.0346	0.00066	84.0	101.0	84.0	0	0	1	-59.99999999999999	59.99999999999999								
	59321	59323	0.011732	0.029327000000000002	5.7e-5	31.0	38.0	31.0	0	0	1	-59.99999999999999	59.99999999999999								
	22885	22883	0.2271	0.3889	0.00055	27.0	30.0	27.0	0	0	1	-59.99999999999999	59.99999999999999								
	30094	30096	0.00015	0.0008100000000000001	0.00025	208.0	249.00000000000003	208.0	0	0	1	-59.99999999999999	59.99999999999999								
	290	246	0.01861	0.0911	0.1711	250.99999999999997	317.0	250.99999999999997	0	0	1	-59.99999999999999	59.99999999999999								
	3352	2947	0.0	0.0001	0.0	1500.0	1500.0	1500.0	0	0	1	-59.99999999999999	59.99999999999999								
	9783	9777	0.052135	0.12733	0.032552	102.0	127.0	112.00000000000001	0	0	1	-59.99999999999999	59.99999999999999								
	210	215	0.01516	0.0872	0.17103000000000002	202.99999999999997	250.99999999999997	250.99999999999997	0	0	1	-59.99999999999999	59.99999999999999								
	58667	56755	0.007078999999999999	0.027704	6.0e-5	43.0	53.0	43.0	0	0	1	-59.99999999999999	59.99999999999999								
	1405	1344	0.0199	0.0507	0.01324	100.0	127.0	100.0	0	0	1	-59.99999999999999	59.99999999999999								
	6925	7203	0.0134	0.053899999999999997	0.001442	100.0	100.0	70.0	0	0	1	-59.99999999999999	59.99999999999999								
	30356	2415	0.16899999999999998	0.237	0.004	38.0	54.0	38.0	0	0	0	-59.99999999999999	59.99999999999999								
	58818	58824	0.011732	0.029327000000000002	5.7e-5	31.0	38.0	31.0	0	0	1	-59.99999999999999	59.99999999999999								
	8542	8557	0.02895	0.07465	0.01844	90.0	120.0	90.0	0	0	0	-59.99999999999999	59.99999999999999								
	6870	7050	0.0322	0.0872	0.001771	72.0	72.0	77.0	0	0	1	-59.99999999999999	59.99999999999999								
	44656	7229	0.03384	0.10332000000000001	0.02544	81.0	129.0	90.0	0	0	1	-59.99999999999999	59.99999999999999								
	286	11286	0.003912	0.019367000000000002	0.036598	250.99999999999997	317.0	250.99999999999997	0	0	1	-59.99999999999999	59.99999999999999								
	6889	6868	0.0076	0.0366	0.000914	112.99999999999999	112.99999999999999	113.99999999999999	0	0	1	-59.99999999999999	59.99999999999999								
	59505	59503	0.0007099999999999999	0.00584	0.02196	567.0	709.0	567.0	0	0	1	-59.99999999999999	59.99999999999999								
	543	541	0.0005	0.0058	0.6103999999999999	2165.0	2165.0	2165.0	0	0	1	-59.99999999999999	59.99999999999999								
	297	13040	0.03686	0.2192	0.42579	284.0	355.0	284.0	0	0	1	-59.99999999999999	59.99999999999999								
	13502	362	0.00488	0.03488	0.1748	558.0	697.0	338.0	0	0	1	-59.99999999999999	59.99999999999999								
	28379	28275	0.003	0.00768	0.001926	122.0	122.0	122.0	0	0	1	-59.99999999999999	59.99999999999999								
	6123	6212	0.0159	0.0718	0.0207	186.0	186.0	186.0	0	0	1	-59.99999999999999	59.99999999999999								
	4215	4227	0.0034999999999999996	0.0051	0.14647	95.0	109.00000000000001	95.0	0	0	1	-59.99999999999999	59.99999999999999								
	2873	31098	0.023767999999999997	0.062430000000000006	0.016	80.0	108.0	80.0	0	0	1	-59.99999999999999	59.99999999999999								
	8020	8021	0.00368	0.01229	0.00021999999999999998	69.0	88.0	69.0	0	0	1	-59.99999999999999	59.99999999999999								
	33002	2809	0.0	1.0e-5	0.0	999.0	999.0	999.0	0	0	1	-59.99999999999999	59.99999999999999								
	3831	2900	0.00037	0.005575	0.1537	2390.0	2390.0	2390.0	0	0	1	-59.99999999999999	59.99999999999999								
	30846	30844	0.00377	0.00846	0.00037999999999999997	92.0	92.0	92.0	0	0	0	-59.99999999999999	59.99999999999999								
	30723	30725	0.00246	0.00622	0.00027	92.0	92.0	92.0	0	0	1	-59.99999999999999	59.99999999999999								
	6963	6962	0.0037	0.0196	0.00745	176.0	176.0	94.0	0	0	1	-59.99999999999999	59.99999999999999								
	7571	7456	0.024900000000000002	0.09269999999999999	0.0014000000000000002	84.0	101.0	100.0	0	0	1	-59.99999999999999	59.99999999999999								
	1317	1322	0.1275	0.2523	0.0623	60.0	60.0	88.0	0	0	1	-59.99999999999999	59.99999999999999								
	56104	223	0.012597	0.061228	0.1175	260.0	325.0	325.0	0	0	1	-59.99999999999999	59.99999999999999								
	2515	29910	0.0013900000000000002	0.00366	0.00086	101.0	144.0	101.0	0	0	1	-59.99999999999999	59.99999999999999								
	2288	30278	0.003946	0.013118000000000001	0.0032340000000000003	249.00000000000003	293.0	249.00000000000003	0	0	1	-59.99999999999999	59.99999999999999								
	1525	26465	0.0012280000000000001	0.021557	2.2847999999999997	3503.0	4187.0	2700.0	0	0	1	-59.99999999999999	59.99999999999999								
	211	228	0.01867	0.09630000000000001	0.16829999999999998	273.0	273.0	273.0	0	0	1	-59.99999999999999	59.99999999999999								
	4151	4183	0.0008	0.0044	0.0025	194.0	247.00000000000003	194.0	0	0	1	-59.99999999999999	59.99999999999999								
	59361	59362	0.011732	0.029327000000000002	5.7e-5	31.0	38.0	31.0	0	0	1	-59.99999999999999	59.99999999999999								
	30784	30768	0.006762000000000001	0.026810999999999998	0.001362	159.0	159.0	138.0	0	0	1	-59.99999999999999	59.99999999999999								
	4214	3760	0.0019	0.011000000000000001	0.00313	218.00000000000003	264.0	218.00000000000003	0	0	1	-59.99999999999999	59.99999999999999								
	55754	55813	0.011731	0.029325999999999998	5.6e-5	31.0	38.0	31.0	0	0	1	-59.99999999999999	59.99999999999999								
	1410	1412	0.13369999999999999	0.3256	0.0793	127.0	127.0	80.0	0	0	1	-59.99999999999999	59.99999999999999								
	3831	2909	0.001	0.009899999999999999	0.152	1195.0	1195.0	776.0	0	0	1	-59.99999999999999	59.99999999999999								
	58006	58007	0.011732	0.029327000000000002	5.7e-5	31.0	38.0	31.0	0	0	1	-59.99999999999999	59.99999999999999								
	3670	2919	0.00095	0.007982	0.1439	1184.0	1392.0	1184.0	0	0	1	-59.99999999999999	59.99999999999999								
	26204	26209	0.044883	0.12658	0.033639999999999996	80.0	100.0	80.0	0	0	1	-59.99999999999999	59.99999999999999								
	38986	1630	0.019906	0.097257	0.1809	248.0	312.0	303.0	0	0	1	-59.99999999999999	59.99999999999999								
	585	59190	0.000713	0.004929	1.1188	2494.0	3464.0	2494.0	0	0	1	-59.99999999999999	59.99999999999999								
	1560	1587	0.01044	0.02685	0.006710000000000001	143.0	143.0	150.0	0	0	1	-59.99999999999999	59.99999999999999								
	30951	4321	0.0006862	0.0085978	0.53903	2030.0	2030.0	2030.0	0	0	1	-59.99999999999999	59.99999999999999								
	19124	19125	0.0	1.0e-5	0.0	0.0	0.0	0.0	0	0	1	-59.99999999999999	59.99999999999999								
	59096	59076	0.011731	0.029325999999999998	5.6e-5	31.0	38.0	38.0	0	0	1	-59.99999999999999	59.99999999999999								
	2506	30124	0.0034100000000000003	0.01154	0.0032600000000000003	125.0	179.0	125.0	0	0	1	-59.99999999999999	59.99999999999999								
	1615	1621	0.02572	0.06459	0.0171	125.0	125.0	125.0	0	0	1	-59.99999999999999	59.99999999999999								
	35061	35026	0.0070999999999999995	0.0278	0.00774	164.0	164.0	164.0	0	0	1	-59.99999999999999	59.99999999999999								
	30857	30860	0.0006	0.0036	0.00017999999999999998	159.0	159.0	159.0	0	0	1	-59.99999999999999	59.99999999999999								
	1567	1586	0.00628	0.01599	0.005639999999999999	150.0	160.0	150.0	0	0	1	-59.99999999999999	59.99999999999999								
	7207	6864	0.0222	0.0605	0.00147	64.0	64.0	2182.0	0	0	1	-59.99999999999999	59.99999999999999								
	7714	7757	0.01883	0.1435	0.33399999999999996	338.0	415.00000000000006	338.0	0	0	1	-59.99999999999999	59.99999999999999								
	31007	2747	0.00014099999999999998	0.000235	7.000000000000001e-5	78.0	98.0	85.0	0	0	1	-59.99999999999999	59.99999999999999								
	56643	56644	0.011732	0.029327000000000002	5.7e-5	31.0	39.0	31.0	0	0	1	-59.99999999999999	59.99999999999999								
	57714	57719	0.007847	0.019168	0.00031099999999999997	47.0	59.0	47.0	0	0	1	-59.99999999999999	59.99999999999999								
	1170	1258	0.00168	0.01088	0.00242	155.0	180.0	155.0	0	0	1	-59.99999999999999	59.99999999999999								
	30094	2635	0.00208	0.01113	0.0034200000000000003	208.0	249.00000000000003	208.0	0	0	1	-59.99999999999999	59.99999999999999								
	2530	30251	0.00487	0.0111	0.0029409999999999996	144.0	168.0	144.0	0	0	1	-59.99999999999999	59.99999999999999								
	30898	30902	0.001771	0.011268	0.001061	277.0	294.0	138.0	0	0	1	-59.99999999999999	59.99999999999999								
	9396	51612	0.0	1.0e-5	0.0	100.0	100.0	100.0	0	0	0	-59.99999999999999	59.99999999999999								
	30894	30897	0.016806	0.05423	0.00321	277.0	294.0	277.0	0	0	1	-59.99999999999999	59.99999999999999								
	58267	58272	0.011731	0.029325999999999998	5.6e-5	31.0	38.0	38.0	0	0	1	-59.99999999999999	59.99999999999999								
	35036	35060	0.0126	0.051699999999999996	0.009399999999999999	121.0	121.0	121.0	0	0	1	-59.99999999999999	59.99999999999999								
	2594	30924	0.00146	0.01084	0.04819	120.0	120.0	120.0	0	0	1	-59.99999999999999	59.99999999999999								
	46163	46164	0.0001	0.0001	0.0001	167.0	202.99999999999997	167.0	0	0	1	-59.99999999999999	59.99999999999999								
	1038	2955	0.011149	0.028258000000000002	0.0013	50.0	61.0	81.0	0	0	1	-59.99999999999999	59.99999999999999								
	6103	6102	0.0268	0.0962	0.0013	56.99999999999999	56.99999999999999	56.99999999999999	0	0	1	-59.99999999999999	59.99999999999999								
	58656	59002	0.011731	0.029325999999999998	5.6e-5	31.0	38.0	38.0	0	0	1	-59.99999999999999	59.99999999999999								
	30349	2368	0.0059440000000000005	0.020099999999999996	0.00569	125.0	179.0	125.0	0	0	1	-59.99999999999999	59.99999999999999								
	56771	12321	0.005999	0.050528	0.25885	625.0	781.0	78.0	0	0	1	-59.99999999999999	59.99999999999999								
	58122	58121	0.000344	0.00491	0.7557699999999999	2716.0	3395.0000000000005	2716.0	0	0	1	-59.99999999999999	59.99999999999999								
	9245	7624	0.0012	0.0062	0.0108	270.0	346.0	270.0	0	0	1	-59.99999999999999	59.99999999999999								
	56660	56662	0.008821	0.028418000000000002	5.7999999999999994e-5	37.0	46.0	31.0	0	0	1	-59.99999999999999	59.99999999999999								
	6957	7223	0.07780000000000001	0.16449999999999998	0.038212	94.0	120.0	112.99999999999999	0	0	1	-59.99999999999999	59.99999999999999								
	27271	1741	0.024253999999999998	0.061696	0.015691999999999998	150.0	150.0	150.0	0	0	1	-59.99999999999999	59.99999999999999								
	1881	27924	0.027334	0.070719	0.017367999999999998	125.0	125.0	125.0	0	0	1	-59.99999999999999	59.99999999999999								
	9233	9040	0.00026700000000000004	0.0017924999999999998	0.0066719	540.0	540.0	259.0	0	0	1	-59.99999999999999	59.99999999999999								
	2683	2758	0.002	0.02492	1.4464	1524.0	1524.0	1524.0	0	0	1	-59.99999999999999	59.99999999999999								
	472	11760	0.016949000000000002	0.081175	0.14922000000000002	174.0	247.00000000000003	174.0	0	0	1	-59.99999999999999	59.99999999999999								
	4067	1992	0.02136	0.08892	0.02289	121.0	157.0	121.0	0	0	1	-59.99999999999999	59.99999999999999								
	2035	28503	0.0015	0.00381	0.00097	122.0	130.0	122.0	0	0	1	-59.99999999999999	59.99999999999999								
	591	757	0.0	-0.009519999999999999	0.0	1300.0	1950.0	1300.0	0	0	1	-59.99999999999999	59.99999999999999								
	6265	6255	0.042699999999999995	0.10310000000000001	0.0018	63.0	63.0	63.0	0	0	1	-59.99999999999999	59.99999999999999								
	1092	3921	0.0	0.0005099999999999999	0.0	750.0	975.0	750.0	0	0	1	-59.99999999999999	59.99999999999999								
	31142	31139	0.020659999999999998	0.048661	0.0021	73.0	101.0	73.0	0	0	1	-59.99999999999999	59.99999999999999								
	6991	85000	0.0040265	0.009193400000000001	0.0029076	121.0	150.0	121.0	0	0	1	-59.99999999999999	59.99999999999999								
	3661	3664	0.00064	0.015300000000000001	0.9711000000000007	4133.0	4174.0	5207.0	0	0	1	-59.99999999999999	59.99999999999999								
	3920	3978	0.022160000000000003	0.11084	0.18766	221.0	311.0	219.0	0	0	1	-59.99999999999999	59.99999999999999								
	31002	60047	0.003899	0.016464	0.004795	206.0	424.0	206.0	0	0	1	-59.99999999999999	59.99999999999999								
	44651	44652	0.0001	0.0002	0.00042	220.00000000000003	220.00000000000003	220.00000000000003	0	0	1	-59.99999999999999	59.99999999999999								
	70086	70004	0.001	0.001	1.0e-6	999.0	999.0	999.0	0	0	1	-59.99999999999999	59.99999999999999								
	35041	39112	0.033	0.08470000000000001	0.021099999999999997	135.0	135.0	135.0	0	0	1	-59.99999999999999	59.99999999999999								
	55215	55218	0.011732	0.029327000000000002	5.7e-5	31.0	38.0	31.0	0	0	1	-59.99999999999999	59.99999999999999								
	7053	7052	0.0548	0.159	0.043225	82.0	130.0	87.0	0	0	1	-59.99999999999999	59.99999999999999								
	3834	3841	0.0	0.0076	0.0	911.9999999999999	1103.0	1254.0	0	0	1	-59.99999999999999	59.99999999999999								
	12546	346	0.0014000000000000002	0.0103	0.039	503.0	633.0	503.0	0	0	1	-59.99999999999999	59.99999999999999								
	2624	2636	0.0043219999999999995	0.054916	3.0959	2030.0	2400.0	1524.0	0	0	1	-59.99999999999999	59.99999999999999								
	4067	28274	0.02136	0.08892	0.02289	121.0	157.0	121.0	0	0	1	-59.99999999999999	59.99999999999999								
	3288	3303	0.02338	0.2121	0.8153	532.0	670.0	532.0	0	0	1	-59.99999999999999	59.99999999999999								
	10035	10053	0.0051	0.01006	0.00248	84.0	105.0	84.0	0	0	1	-59.99999999999999	59.99999999999999								
	255	244	0.0226	0.1185	0.213	250.99999999999997	261.0	261.0	0	0	1	-59.99999999999999	59.99999999999999								
	7135	6901	0.0319	0.0984	0.024843	69.0	123.0	92.0	0	0	1	-59.99999999999999	59.99999999999999								
	29901	30649	0.00624	0.03066	0.00947	249.00000000000003	293.0	249.00000000000003	0	0	1	-59.99999999999999	59.99999999999999								
	32638	3146	0.0123	0.000972	0.007692	95.0	139.0	95.0	0	0	0	-59.99999999999999	59.99999999999999								
	55023	55024	0.011732	0.029327000000000002	5.7e-5	31.0	38.0	31.0	0	0	0	-59.99999999999999	59.99999999999999								
	3760	4210	0.00023	0.001721	0.000155	239.0	301.0	239.0	0	0	1	-59.99999999999999	59.99999999999999								
	571	402	0.0	-0.0095	0.0	1732.0	2338.0	1732.0	0	0	1	-59.99999999999999	59.99999999999999								
	10440	10445	0.004773	0.02963	0.000574	82.0	104.0	82.0	0	0	1	-59.99999999999999	59.99999999999999								
	2750	2757	0.00083	0.00532	0.003011	411.00000000000006	478.0	296.0	0	0	1	-59.99999999999999	59.99999999999999								
	2313	30113	3.0e-5	6.0e-5	2.0e-5	101.0	144.0	101.0	0	0	0	-59.99999999999999	59.99999999999999								
	31045	31047	0.0018640000000000002	0.0031869999999999997	0.002533	260.0	277.0	260.0	0	0	1	-59.99999999999999	59.99999999999999								
	6757	6758	0.0	0.0002	0.0259	363.0	363.0	363.0	0	0	1	-59.99999999999999	59.99999999999999								
	58028	349	0.008897	0.042512999999999995	0.07444	279.0	279.0	279.0	0	0	1	-59.99999999999999	59.99999999999999								
	59487	59411	0.011731	0.029325999999999998	5.6e-5	31.0	38.0	31.0	0	0	1	-59.99999999999999	59.99999999999999								
	59397	59400	0.23253000000000001	0.42613999999999996	0.000766	24.0	30.0	24.0	0	0	1	-59.99999999999999	59.99999999999999								
	588	11612	0.000902	0.012574	1.3869999999999996	2500.0	3000.0	2500.0	0	0	1	-59.99999999999999	59.99999999999999								
	1716	1725	0.0381	0.0981	0.02404	125.0	125.0	26.0	0	0	1	-59.99999999999999	59.99999999999999								
	6464	6436	0.2158	0.5218	0.0092	63.0	63.0	80.0	0	0	1	-59.99999999999999	59.99999999999999								
	22899	22882	0.1207	0.2164	0.00033	32.0	35.0	32.0	0	0	1	-59.99999999999999	59.99999999999999								
	56733	56738	0.011731	0.029325999999999998	5.6e-5	31.0	38.0	31.0	0	0	1	-59.99999999999999	59.99999999999999								
	59101	59104	0.011731	0.029325999999999998	5.6e-5	31.0	38.0	38.0	0	0	1	-59.99999999999999	59.99999999999999								
	529	538	0.002	0.026099999999999998	-0.3672000000000004	1732.0	1732.0	1732.0	0	0	1	-59.99999999999999	59.99999999999999								
	3795	39313	0.0023499999999999997	0.02638	0.45299999999999996	850.0	1075.0	850.0	0	0	1	-59.99999999999999	59.99999999999999								
	59205	11260	0.005803	0.0345	0.12473000000000001	453.0	566.0	453.0	0	0	1	-59.99999999999999	59.99999999999999								
	22801	22813	0.011699999999999999	0.041299999999999996	0.01093	160.0	176.0	160.0	0	0	1	-59.99999999999999	59.99999999999999								
	9424	9228	0.00786	0.0279	0.004876	123.0	157.0	76.0	0	0	1	-59.99999999999999	59.99999999999999								
	3642	3651	0.0007599999999999999	0.018500000000000003	4.4433	4133.0	4174.0	5207.0	0	0	1	-59.99999999999999	59.99999999999999								
	30084	30086	0.00218	0.0053300000000000005	0.0014399999999999999	101.0	144.0	101.0	0	0	1	-59.99999999999999	59.99999999999999								
	6864	6868	0.028399999999999998	0.0877	0.001335	75.0	75.0	92.0	0	0	0	-59.99999999999999	59.99999999999999								
	559	459	0.0	-0.011000000000000001	0.0	1992.0000000000002	2680.0	1992.0000000000002	0	0	1	-59.99999999999999	59.99999999999999								
	8536	8546	0.27817000000000003	0.40914	0.0059	32.0	41.0	32.0	0	0	1	-59.99999999999999	59.99999999999999								
	2630	2628	0.0013	0.0171	1.0288	1524.0	1524.0	1067.0	0	0	1	-59.99999999999999	59.99999999999999								
	1491	1650	0.00086	0.00754	0.122	699.0	699.0	150.0	0	0	1	-59.99999999999999	59.99999999999999								
	26787	1549	0.00907	0.042069999999999996	0.01146	150.0	150.0	150.0	0	0	1	-59.99999999999999	59.99999999999999								
	19750	19752	0.027627000000000002	0.071352	0.017405	126.0	126.0	127.0	0	0	1	-59.99999999999999	59.99999999999999								
	31107	31143	0.035305	0.083155	0.0036	89.0	104.0	89.0	0	0	1	-59.99999999999999	59.99999999999999								
	325	225	0.0001	0.0002	0.0006	478.0	478.0	802.9999999999999	0	0	1	-59.99999999999999	59.99999999999999								
	3947	40658	0.0008	0.0039000000000000003	0.0067	229.99999999999997	290.0	229.99999999999997	0	0	1	-59.99999999999999	59.99999999999999								
	56555	56552	0.049398	0.15914	0.000329	37.0	46.0	37.0	0	0	1	-59.99999999999999	59.99999999999999								
	4236	4235	0.00037	0.00215	0.00061	194.0	247.00000000000003	176.0	0	0	1	-59.99999999999999	59.99999999999999								
	2585	30873	0.0006900000000000001	0.00314	0.00018999999999999998	159.0	187.0	159.0	0	0	1	-59.99999999999999	59.99999999999999								
	50214	9120	0.00134	0.012110000000000001	0.04421	687.0	817.0	817.0	0	0	1	-59.99999999999999	59.99999999999999								
	10052	10075	0.021330000000000002	0.13232	0.00256	91.0	113.99999999999999	113.99999999999999	0	0	1	-59.99999999999999	59.99999999999999								
	59368	59371	0.011732	0.029327000000000002	5.7e-5	31.0	38.0	31.0	0	0	1	-59.99999999999999	59.99999999999999								
	2261	30055	0.009928	0.018337000000000003	0.004418	277.0	314.0	101.0	0	0	1	-59.99999999999999	59.99999999999999								
	58181	58197	0.011731	0.029325999999999998	5.6e-5	31.0	38.0	31.0	0	0	1	-59.99999999999999	59.99999999999999								
	26160	25709	0.017757000000000002	0.070331	0.000149	42.0	52.0	16.0	0	0	1	-59.99999999999999	59.99999999999999								
	32566	2750	0.040898000000000004	0.096028	0.0255	139.0	163.0	139.0	0	0	0	-59.99999999999999	59.99999999999999								
	58781	58315	0.011731	0.029325999999999998	5.6e-5	31.0	38.0	31.0	0	0	1	-59.99999999999999	59.99999999999999								
	2437	3843	0.0226	0.1173	0.034	249.00000000000003	249.00000000000003	26.0	0	0	1	-59.99999999999999	59.99999999999999								
	8535	8591	0.08080999999999999	0.209	0.05082	97.0	124.0	97.0	0	0	1	-59.99999999999999	59.99999999999999								
	56052	56054	0.016609	0.030438999999999997	5.4999999999999995e-5	24.0	30.0	24.0	0	0	1	-59.99999999999999	59.99999999999999								
	6710	7762	0.0008	0.0084	1.089	1660.0000000000002	2400.0	1660.0000000000002	0	0	1	-59.99999999999999	59.99999999999999								
	1995	1954	0.09949999999999999	0.24960000000000002	0.06555	105.0	105.0	110.00000000000001	0	0	1	-59.99999999999999	59.99999999999999								
	4296	571	0.0	-0.009519999999999999	0.0	1732.0	2338.0	1732.0	0	0	1	-59.99999999999999	59.99999999999999								
	6715	7042	0.00363	0.026539999999999998	0.06504	350.0	350.0	350.0	0	0	1	-59.99999999999999	59.99999999999999								
	4205	4135	0.002667	0.015196000000000001	0.004318	194.0	247.00000000000003	194.0	0	0	0	-59.99999999999999	59.99999999999999								
	30225	2302	9.599999999999999e-5	0.000214	5.9e-5	144.0	210.0	144.0	0	0	0	-59.99999999999999	59.99999999999999								
	70078	70025	0.023458999999999997	0.018592	4.4000000000000006e-5	15.0	19.0	15.0	0	0	1	-59.99999999999999	59.99999999999999								
	30370	30369	0.0001	0.0001	0.0001	144.0	168.0	144.0	0	0	1	-59.99999999999999	59.99999999999999								
	30099	2444	0.00126	0.0028199999999999996	0.00077	144.0	168.0	144.0	0	0	0	-59.99999999999999	59.99999999999999								
	3664	3663	0.0006900000000000001	0.015700000000000002	1.1703000000000001	4133.0	4174.0	5207.0	0	0	1	-59.99999999999999	59.99999999999999								
	59163	59176	0.011731	0.029325999999999998	5.6e-5	31.0	38.0	31.0	0	0	1	-59.99999999999999	59.99999999999999								
	7827	46851	0.01164	0.051559999999999995	0.24525	450.0	567.0	450.0	0	0	1	-59.99999999999999	59.99999999999999								
	2708	32513	0.026775000000000004	0.062855	0.0167	139.0	163.0	139.0	0	0	1	-59.99999999999999	59.99999999999999								
	30805	30821	0.000666	0.0037219999999999996	0.000283	275.0	275.0	275.0	0	0	1	-59.99999999999999	59.99999999999999								
	12033	641	0.0	1.0e-5	0.0	0.0	0.0	0.0	0	0	0	-59.99999999999999	59.99999999999999								
	1091	22842	0.0814	0.1912	0.0035199999999999997	25.0	27.0	27.0	0	0	1	-59.99999999999999	59.99999999999999								
	1158	23412	0.03232	0.094	0.025179999999999998	103.0	120.0	103.0	0	0	1	-59.99999999999999	59.99999999999999								
	58849	58852	0.007078999999999999	0.027704	6.0e-5	43.0	53.0	43.0	0	0	1	-59.99999999999999	59.99999999999999								
	7732	7300	0.00031	0.0040999999999999995	0.49670000000000003	2189.0	2189.0	2189.0	0	0	1	-59.99999999999999	59.99999999999999								
	2732	2706	0.0073939999999999995	0.024908	0.0096	139.0	163.0	139.0	0	0	1	-59.99999999999999	59.99999999999999								
	2346	2400	0.00223	0.00497	0.0013700000000000001	144.0	168.0	144.0	0	0	1	-59.99999999999999	59.99999999999999								
	6991	7211	0.047400000000000005	0.1112	0.028409	65.0	65.0	80.0	0	0	1	-59.99999999999999	59.99999999999999								
	1668	1685	0.0341	0.08779999999999999	0.021509999999999998	125.0	125.0	303.0	0	0	1	-59.99999999999999	59.99999999999999								
	30861	30864	0.0002	0.0013	6.0e-5	159.0	159.0	159.0	0	0	1	-59.99999999999999	59.99999999999999								
	57713	57715	0.011151	0.027239	0.000443	47.0	59.0	47.0	0	0	1	-59.99999999999999	59.99999999999999								
	10335	10505	0.00035000000000000005	0.0022500000000000003	0.002	190.0	190.0	190.0	0	0	1	-59.99999999999999	59.99999999999999								
	22884	22886	0.0161	0.0275	4.0e-5	14.000000000000002	15.0	14.000000000000002	0	0	1	-59.99999999999999	59.99999999999999								
	7081	7096	0.048799999999999996	0.1197	0.028028	104.0	128.0	110.00000000000001	0	0	1	-59.99999999999999	59.99999999999999								
	22872	22874	0.1167	0.2437	0.00035999999999999997	25.0	27.0	25.0	0	0	1	-59.99999999999999	59.99999999999999								
	3972	1966	0.0052	0.0291	0.00836	146.0	206.99999999999997	146.0	0	0	1	-59.99999999999999	59.99999999999999								
...
];

%% dcline data
%    f_bus    t_bus    status    Pf    Pt    Qf    Qt    Vf    Vt    Pmin    Pmax    QminF    QmaxF    QminT    QmaxT    loss0    loss1
mpc.dcline = [
	3639	3691	1	1200.0	1158.12	-0.0	-0.0	1.039	1.02	-1158.12	1200.0	-1195.4336377100947	0.0	-1107.5156639759105	0.0	0.0	0.0						
	3639	3691	1	1200.0	1158.12	-0.0	-0.0	1.039	1.02	-1158.12	1200.0	-1195.4336377100947	0.0	-1107.5156639759105	0.0	0.0	0.0						
	3639	3691	1	1200.0	1158.12	-0.0	-0.0	1.039	1.02	-1158.12	1200.0	-1195.4336377100947	0.0	-1107.5156639759105	0.0	0.0	0.0						
	3639	3691	1	1200.0	1158.12	-0.0	-0.0	1.039	1.02	-1158.12	1200.0	-1195.4336377100947	0.0	-1107.5156639759105	0.0	0.0	0.0						
	5201	5206	1	1442.0	1343.23021	-0.0	-0.0	1.051	1.069	-1343.23021	1442.0	-1436.512754648297	0.0	-1284.5374381762267	0.0	0.0	0.0						
	5201	5206	1	1442.0	1343.23021	-0.0	-0.0	1.051	1.069	-1343.23021	1442.0	-1436.512754648297	0.0	-1284.5374381762267	0.0	0.0	0.0						
	5201	5206	1	1442.0	1350.450223888889	-0.0	-0.0	1.051	1.069	-1350.450223888889	1442.0	-1436.512754648297	0.0	-1280.6638924923416	0.0	0.0	0.0						
	5201	5206	1	1442.0	1350.450223888889	-0.0	-0.0	1.051	1.069	-1350.450223888889	1442.0	-1436.512754648297	0.0	-1280.6638924923416	0.0	0.0	0.0						
	5205	5198	1	280.0	275.4608790301103	-0.0	-0.0	1.051	1.006	-275.4608790301103	280.0	-276.1599684304248	0.0	-255.4028796014932	0.0	0.0	0.0						
	5205	5198	1	280.0	275.4608790301103	-0.0	-0.0	1.051	1.006	-275.4608790301103	280.0	-276.1599684304248	0.0	-255.4028796014932	0.0	0.0	0.0						
	4945	4943	1	2000.0	1913.1250000000002	-0.0	-0.0	1.061	1.06	-1913.1250000000002	2000.0	-1951.069087891713	0.0	-1819.4899977371656	0.0	0.0	0.0						
	4945	4943	1	2000.0	1913.1250000000002	-0.0	-0.0	1.061	1.06	-1913.1250000000002	2000.0	-1951.069087891713	0.0	-1819.4899977371656	0.0	0.0	0.0						
	4946	4947	1	2000.0	1894.9375	-0.0	-0.0	1.061	1.064	-1894.9375	2000.0	-1992.389396183491	0.0	-1812.1377435027046	0.0	0.0	0.0						
	4946	4947	1	2000.0	1894.9375	-0.0	-0.0	1.061	1.064	-1894.9375	2000.0	-1992.389396183491	0.0	-1812.1377435027046	0.0	0.0	0.0						
];

%%-----  OPF Data  -----%%
%% cost data
%    1    startup    shutdown    n    x1    y1    ...    xn    yn
%    2    startup    shutdown    n    c(n-1)    ...    c0
mpc.gencost = [
	2	0.0	0.0	2	1.0	0.0
	2	0.0	0.0	2	1.0	0.0
	2	0.0	0.0	2	1.0	0.0
	2	0.0	0.0	2	1.0	0.0
	2	0.0	0.0	2	1.0	0.0
	2	0.0	0.0	2	1.0	0.0
	2	0.0	0.0	2	1.0	0.0
	2	0.0	0.0	2	1.0	0.0
	2	0.0	0.0	2	1.0	0.0
	2	0.0	0.0	2	1.0	0.0
	2	0.0	0.0	2	1.0	0.0
	2	0.0	0.0	2	1.0	0.0
	2	0.0	0.0	2	1.0	0.0
	2	0.0	0.0	2	1.0	0.0
	2	0.0	0.0	2	1.0	0.0
	2	0.0	0.0	2	1.0	0.0
	2	0.0	0.0	2	1.0	0.0
	2	0.0	0.0	2	1.0	0.0
	2	0.0	0.0	2	1.0	0.0
	2	0.0	0.0	2	1.0	0.0
	2	0.0	0.0	2	1.0	0.0
	2	0.0	0.0	2	1.0	0.0
	2	0.0	0.0	2	1.0	0.0
	2	0.0	0.0	2	1.0	0.0
	2	0.0	0.0	2	1.0	0.0
	2	0.0	0.0	2	1.0	0.0
	2	0.0	0.0	2	1.0	0.0
	2	0.0	0.0	2	1.0	0.0
	2	0.0	0.0	2	1.0	0.0
	2	0.0	0.0	2	1.0	0.0
	2	0.0	0.0	2	1.0	0.0
	2	0.0	0.0	2	1.0	0.0
	2	0.0	0.0	2	1.0	0.0
	2	0.0	0.0	2	1.0	0.0
	2	0.0	0.0	2	1.0	0.0
	2	0.0	0.0	2	1.0	0.0
	2	0.0	0.0	2	1.0	0.0
	2	0.0	0.0	2	1.0	0.0
	2	0.0	0.0	2	1.0	0.0
	2	0.0	0.0	2	1.0	0.0
	2	0.0	0.0	2	1.0	0.0
	2	0.0	0.0	2	1.0	0.0
	2	0.0	0.0	2	1.0	0.0
	2	0.0	0.0	2	1.0	0.0
	2	0.0	0.0	2	1.0	0.0
	2	0.0	0.0	2	1.0	0.0
	2	0.0	0.0	2	1.0	0.0
	2	0.0	0.0	2	1.0	0.0
	2	0.0	0.0	2	1.0	0.0
	2	0.0	0.0	2	1.0	0.0
	2	0.0	0.0	2	1.0	0.0
	2	0.0	0.0	2	1.0	0.0
	2	0.0	0.0	2	1.0	0.0
	2	0.0	0.0	2	1.0	0.0
	2	0.0	0.0	2	1.0	0.0
	2	0.0	0.0	2	1.0	0.0
	2	0.0	0.0	2	1.0	0.0
	2	0.0	0.0	2	1.0	0.0
	2	0.0	0.0	2	1.0	0.0
	2	0.0	0.0	2	1.0	0.0
	2	0.0	0.0	2	1.0	0.0
	2	0.0	0.0	2	1.0	0.0
	2	0.0	0.0	2	1.0	0.0
	2	0.0	0.0	2	1.0	0.0
	2	0.0	0.0	2	1.0	0.0
	2	0.0	0.0	2	1.0	0.0
	2	0.0	0.0	2	1.0	0.0
	2	0.0	0.0	2	1.0	0.0
	2	0.0	0.0	2	1.0	0.0
	2	0.0	0.0	2	1.0	0.0
	2	0.0	0.0	2	1.0	0.0
	2	0.0	0.0	2	1.0	0.0
	2	0.0	0.0	2	1.0	0.0
	2	0.0	0.0	2	1.0	0.0
	2	0.0	0.0	2	1.0	0.0
	2	0.0	0.0	2	1.0	0.0
	2	0.0	0.0	2	1.0	0.0
	2	0.0	0.0	2	1.0	0.0
	2	0.0	0.0	2	1.0	0.0
	2	0.0	0.0	2	1.0	0.0
	2	0.0	0.0	2	1.0	0.0
	2	0.0	0.0	2	1.0	0.0
	2	0.0	0.0	2	1.0	0.0
	2	0.0	0.0	2	1.0	0.0
	2	0.0	0.0	2	1.0	0.0
	2	0.0	0.0	2	1.0	0.0
	2	0.0	0.0	2	1.0	0.0
	2	0.0	0.0	2	1.0	0.0
	2	0.0	0.0	2	1.0	0.0
	2	0.0	0.0	2	1.0	0.0
	2	0.0	0.0	2	1.0	0.0
	2	0.0	0.0	2	1.0	0.0
	2	0.0	0.0	2	1.0	0.0
	2	0.0	0.0	2	1.0	0.0
	2	0.0	0.0	2	1.0	0.0
	2	0.0	0.0	2	1.0	0.0
	2	0.0	0.0	2	1.0	0.0
	2	0.0	0.0	2	1.0	0.0
	2	0.0	0.0	2	1.0	0.0
	2	0.0	0.0	2	1.0	0.0
	2	0.0	0.0	2	1.0	0.0
	2	0.0	0.0	2	1.0	0.0
	2	0.0	0.0	2	1.0	0.0
	2	0.0	0.0	2	1.0	0.0
	2	0.0	0.0	2	1.0	0.0
	2	0.0	0.0	2	1.0	0.0
	2	0.0	0.0	2	1.0	0.0
	2	0.0	0.0	2	1.0	0.0
	2	0.0	0.0	2	1.0	0.0
	2	0.0	0.0	2	1.0	0.0
	2	0.0	0.0	2	1.0	0.0
	2	0.0	0.0	2	1.0	0.0
	2	0.0	0.0	2	1.0	0.0
	2	0.0	0.0	2	1.0	0.0
	2	0.0	0.0	2	1.0	0.0
	2	0.0	0.0	2	1.0	0.0
	2	0.0	0.0	2	1.0	0.0
	2	0.0	0.0	2	1.0	0.0
	2	0.0	0.0	2	1.0	0.0
	2	0.0	0.0	2	1.0	0.0
	2	0.0	0.0	2	1.0	0.0
	2	0.0	0.0	2	1.0	0.0
	2	0.0	0.0	2	1.0	0.0
	2	0.0	0.0	2	1.0	0.0
	2	0.0	0.0	2	1.0	0.0
	2	0.0	0.0	2	1.0	0.0
	2	0.0	0.0	2	1.0	0.0
	2	0.0	0.0	2	1.0	0.0
	2	0.0	0.0	2	1.0	0.0
	2	0.0	0.0	2	1.0	0.0
	2	0.0	0.0	2	1.0	0.0
	2	0.0	0.0	2	1.0	0.0
	2	0.0	0.0	2	1.0	0.0
	2	0.0	0.0	2	1.0	0.0
	2	0.0	0.0	2	1.0	0.0
	2	0.0	0.0	2	1.0	0.0
	2	0.0	0.0	2	1.0	0.0
	2	0.0	0.0	2	1.0	0.0
	2	0.0	0.0	2	1.0	0.0
	2	0.0	0.0	2	1.0	0.0
	2	0.0	0.0	2	1.0	0.0
	2	0.0	0.0	2	1.0	0.0
	2	0.0	0.0	2	1.0	0.0
	2	0.0	0.0	2	1.0	0.0
	2	0.0	0.0	2	1.0	0.0
	2	0.0	0.0	2	1.0	0.0
	2	0.0	0.0	2	1.0	0.0
	2	0.0	0.0	2	1.0	0.0
	2	0.0	0.0	2	1.0	0.0
	2	0.0	0.0	2	1.0	0.0
	2	0.0	0.0	2	1.0	0.0
	2	0.0	0.0	2	1.0	0.0
	2	0.0	0.0	2	1.0	0.0
	2	0.0	0.0	2	1.0	0.0
	2	0.0	0.0	2	1.0	0.0
	2	0.0	0.0	2	1.0	0.0
	2	0.0	0.0	2	1.0	0.0
	2	0.0	0.0	2	1.0	0.0
	2	0.0	0.0	2	1.0	0.0
	2	0.0	0.0	2	1.0	0.0
	2	0.0	0.0	2	1.0	0.0
	2	0.0	0.0	2	1.0	0.0
	2	0.0	0.0	2	1.0	0.0
	2	0.0	0.0	2	1.0	0.0
	2	0.0	0.0	2	1.0	0.0
	2	0.0	0.0	2	1.0	0.0
	2	0.0	0.0	2	1.0	0.0
	2	0.0	0.0	2	1.0	0.0
	2	0.0	0.0	2	1.0	0.0
	2	0.0	0.0	2	1.0	0.0
	2	0.0	0.0	2	1.0	0.0
	2	0.0	0.0	2	1.0	0.0
	2	0.0	0.0	2	1.0	0.0
	2	0.0	0.0	2	1.0	0.0
	2	0.0	0.0	2	1.0	0.0
	2	0.0	0.0	2	1.0	0.0
	2	0.0	0.0	2	1.0	0.0
	2	0.0	0.0	2	1.0	0.0
	2	0.0	0.0	2	1.0	0.0
	2	0.0	0.0	2	1.0	0.0
	2	0.0	0.0	2	1.0	0.0
	2	0.0	0.0	2	1.0	0.0
	2	0.0	0.0	2	1.0	0.0
	2	0.0	0.0	2	1.0	0.0
	2	0.0	0.0	2	1.0	0.0
	2	0.0	0.0	2	1.0	0.0
	2	0.0	0.0	2	1.0	0.0
	2	0.0	0.0	2	1.0	0.0
	2	0.0	0.0	2	1.0	0.0
	2	0.0	0.0	2	1.0	0.0
	2	0.0	0.0	2	1.0	0.0
	2	0.0	0.0	2	1.0	0.0
	2	0.0	0.0	2	1.0	0.0
	2	0.0	0.0	2	1.0	0.0
	2	0.0	0.0	2	1.0	0.0
	2	0.0	0.0	2	1.0	0.0
	2	0.0	0.0	2	1.0	0.0
	2	0.0	0.0	2	1.0	0.0
	2	0.0	0.0	2	1.0	0.0
	2	0.0	0.0	2	1.0	0.0
...
];

%%-----  OPF Data  -----%%
%% cost data
%    1    startup    shutdown    n    x1    y1    ...    xn    yn
%    2    startup    shutdown    n    c(n-1)    ...    c0
mpc.dclinecost = [
	2	0.0	0.0	2	0.0	0.0
	2	0.0	0.0	2	0.0	0.0
	2	0.0	0.0	2	0.0	0.0
	2	0.0	0.0	2	0.0	0.0
	2	0.0	0.0	2	0.0	0.0
	2	0.0	0.0	2	0.0	0.0
	2	0.0	0.0	2	0.0	0.0
	2	0.0	0.0	2	0.0	0.0
	2	0.0	0.0	2	0.0	0.0
	2	0.0	0.0	2	0.0	0.0
	2	0.0	0.0	2	0.0	0.0
	2	0.0	0.0	2	0.0	0.0
	2	0.0	0.0	2	0.0	0.0
	2	0.0	0.0	2	0.0	0.0
];

%% bus names
mpc.bus_name = {
	'PAF1-1UHE013'
	'PAF2A1UHE013'
	'PAF2A2UHE013'
	'PAF2A3UHE013'
	'PAF2B1UHE013'
	'PAF2B2UHE013'
	'PAF2B3UHE013'
	'PAF3-1UHE013'
	'PAF3-2UHE013'
	'PAF4-1UHE013'
	'SOBRA1UHE013'
	'SOBRM2SIN013'
	'ASALE1UHE013'
	'ASALE2UHE013'
	'LGONZ1UHE013'
	'LGONZ2UHE013'
	'LGONZA-PE000'
	'BESPE1UHE013'
	'BESPE3UHE013'
	'BESPM4SIN013'
	'PCAVA1UHE013'
	'TUC1-5UHE013'
	'TUC1-3UHE013'
	'TUC1-4UHE013'
	'FUNIL1UHE013'
	'RGONCAUHE013'
	'URUCUIUHE013'
	'TUC2-4UHE013'
	'TUC2-7UHE013'
	'TUC1-ASIN013'
	'TUC1-BSIN013'
	'E.PCEMUTE013'
	'SQUEBRUHE013'
	'ESTREIUHE013'
	'CASTELUHE013'
	'ESTRE-UHE013'
	'CACHEAUHE013'
	'XINGO1UHE013'
	'ITAPE1UHE013'
	'SUAPE1UTE013'
	'SUAPE2UTE013'
	'SUAPE3UTE013'
	'SUAPE4UTE013'
	'SUAPE5UTE013'
	'SUAPE6UTE013'
	'MARAC1UTE013'
	'S.BONF-BA138'
	'PERNA3UTE013'
	'MURICYUTE013'
	'CAMAPAUTE007'
	'PROSP1-BA230'
	'PROSP1UTE013'
	'P.FRAN-MA138'
	'B.NOME-PE138'
	'MLG-RE-CE013'
	'FORTAB-CE013'
	'PIRIPI-PI138'
	'GLOB1-UTE013'
	'GLOB2-UTE013'
	'TERMPBUTE013'
	'MIRAND-MA138'
	'TERMNEUTE013'
	'EPASA--PB230'
	'CABO--UTE013'
	'BAHIA1UTE013'
	'SUAPE--PE230'
	'MARAC1-CE069'
	'CGRD2--PB138'
	'S.CRUZ-RN138'
	'PILOES-PB138'
	'SUAPE1-PE000'
	'SUAPE2-PE000'
	'SUAPE3-PE000'
	'CAMAC1-BA069'
	'AÇU2---RN138'
	'S.MATO-RN138'
	'TERPEGUTE013'
	'TERPEVUTE013'
	'T.FREI-BA138'
	'TUPIRAUHE013'
	'C.M.1-CAP500'
	'LAJEADUHE013'
	'EUNAPO-BA138'
	'CFURTAUTE013'
	'VERACEUTE013'
	'CMDCS--BA000'
	'FUNIL--BA115'
	'B.PULPUTE013'
	'B.PULP-BA069'
	'COPEC--BA069'
	'IRECE--BA138'
	'BARREI-BA138'
	'IBICOA-BA138'
	'PIMENT-PA230'
	'COLITACAP500'
	'ST.MAR-PA138'
	'PIMENTUHE013'
	'CGRD--UTE013'
	'MARAB3CAP500'
	'VCOND2-PA000'
	'MARABASIN013'
	'PAF3-A-BA230'
	'JUAZE2-BA230'
	'S.BONF-BA230'
	'SCHIN--MA230'
	'BROTAS-BA230'
	'SOBRAD-BA230'
	'JAGUAR-BA230'
	'ZEBUII-AL230'
	'POCOE2-BA230'
	'RGONCA-PI230'
	'CASTEL-PI230'
	'FLORII-PE230'
	'ITAGIB-BA230'
	'EMBASA-BA230'
	'BALSAS-MA230'
	'TAUA2--CE230'
	'ICO----CE230'
	'CAUIPE-CE230'
	'D.GOUV-CE230'
	'BOM-NO-PE230'
	'MILAGR-CE230'
	'BANABU-CE230'
	'RUSSA2-CE230'
	'MOSSR2-RN230'
	'FORTAL-CE230'
	'SOBRAL-CE230'
	'PIRIPI-PI230'
	'TERES--PI230'
	'B.ESPE-PI230'
	'PERITO-MA230'
	'MIRAND-MA230'
	'SLUIS1-MA230'
	'COREM2-PB230'
	'PICI2--CE230'
	'CASTAN-PA230'
	'C.NETO-MA230'
	'S.J.PI-PI230'
	'P.DUTR-MA230'
	'IMPERA-MA230'
	'ANGELI-PE230'
	'RECIFE-PE230'
	'R.LAR--AL230'
	'BONGI--PE230'
	'CGRD2B-PB230'
	'SRITA2-PB230'
	'NATAL2-RN230'
	'GOIANI-PE230'
	'MUSSU2-PB230'
	'PIRAPA-PE230'
	'MIRUEI-PE230'
	'AÇU2---RN230'
	'RIBEIR-PE230'
	'SUAPE3-PE230'
	'JOAIRA-PE230'
	'TACAIM-PE230'
	'LCARRO-PE230'
	'PENEDO-AL230'
	'MACEIO-AL230'
	'PAU-FE-PE230'
	'MIRUE2-PE230'
	'T.FREI-BA230'
	'ITAPEB-BA230'
	'S.A.JE-BA230'
	'ITBANI-SE230'
	'TOMBA--BA230'
	'VERACE-BA230'
	'NARAND-BA230'
	'EUNAPO-BA230'
	'C.DANT-BA230'
	'ITABAI-SE230'
	'CATU---BA230'
	'JARDIM-SE230'
	'CMACB1-BA230'
	'G.MANG-BA230'
	'FUNIL--BA230'
	'MATATU-BA230'
	'PITUAC-BA230'
	'COTEGI-BA230'
	'JACARA-BA230'
	'D.PITU-BA230'
	'IRECE--BA230'
	'CAMAC4-BA230'
	'BJLAPA-BA230'
	'BARREI-BA230'
	'E.MART-PI230'
	'IBICOA-BA230'
	'SAPEAC-BA230'
	'PARAIS-RN230'
	'UTINGA-PA230'
	'ST.MAR-PA230'
	'MIRAMA-PA230'
	'CMACB2-BA230'
	'PICOS--PI230'
	'TUCURU-PA230'
	'V.COND-PA230'
	'MARABA-PA230'
	'PAF3-B-BA230'
	'ASALEA-AL230'
	'ASALEB-AL230'
	'ALTOS--PI069'
	'CAMPO--PI069'
	'MARAM--PI069'
	'NAZAR--PI069'
	'ARACA--CE069'
	'IGUA-A-CE069'
	'CAUCA--CE069'
	'PFRANC-MA230'
	'CSP----CE230'
	'CRATO--CE069'
	'JUAZE--CE069'
	'IGUA-B-CE069'
	'MASSAP-CE230'
	'FORTA2-CE230'
	'SOBRA3-CE230'
	'FORTAGUTE013'
	'TERES2-PI230'
	'BESPER-MA230'
	'FORTAVUTE013'
	'MIRA1A-MA000'
	'SLUIS2-MA230'
	'JSPERE-RN230'
	'UTEFOR-CE230'
	'CFURTA-BA230'
	'TERPER-PE230'
	'RALMEI-BA069'
	'UTECEA-CE230'
...